/*--------------------------------*- C++ -*----------------------------------*\
| =========                 |                                                 |
| \\      /  F ield         | OpenFOAM: The Open Source CFD Toolbox           |
|  \\    /   O peration     | Version:  v2012                                 |
|   \\  /    A nd           | Website:  www.openfoam.com                      |
|    \\/     M anipulation  |                                                 |
\*---------------------------------------------------------------------------*/
FoamFile
{
    version     2.0;
    format      ascii;
    class       polyBoundaryMesh;
    location    "constant/polyMesh";
    object      boundary;
}
// * * * * * * * * * * * * * * * * * * * * * * * * * * * * * * * * * * * * * //

4
(
    PipeWalls
    {
        type            wall;
        inGroups        1(wall);
        nFaces          9700;
        startFace       325700;
    }
    Inlet
    {
        type            patch;
        nFaces          1800;
        startFace       335400;
    }
    Outlet
    {
        type            patch;
        nFaces          1800;
        startFace       337200;
    }
    Thermowell
    {
        type            wall;
        inGroups        1(wall);
        nFaces          1300;
        startFace       339000;
    }
)

// ************************************************************************* //
