/*--------------------------------*- C++ -*----------------------------------*\
| =========                 |                                                 |
| \\      /  F ield         | OpenFOAM: The Open Source CFD Toolbox           |
|  \\    /   O peration     | Version:  5                                     |
|   \\  /    A nd           | Web:      www.OpenFOAM.org                      |
|    \\/     M anipulation  |                                                 |
\*---------------------------------------------------------------------------*/
FoamFile
{
    version     2.0;
    format      ascii;
    class       dictionary;
    location    "system";
    object      controlDict;
}
// * * * * * * * * * * * * * * * * * * * * * * * * * * * * * * * * * * * * * //

application     pisoFoam;

startFrom       startTime;

startTime       0;

stopAt          endTime;

endTime         100;

deltaT          0.005;

writeControl    timeStep;

writeInterval   1;

purgeWrite      0;

writeFormat     ascii;

writePrecision  6;

writeCompression off;

timeFormat      general;

timePrecision   6;

runTimeModifiable true;

functions
{   

//  mapFields1
//{
    // Mandatory entries (unmodifiable)
//    type            mapFields;
//    libs            (fieldFunctionObjects);

    // Mandatory (inherited) entries (runtime modifiable)
//    fields          (forces:tractions);
//    mapRegion       constant;
//    mapMethod       cellVolumeWeight;
//    consistent      false;

    // Optional entries (runtime modifiable)
//    patchMapMethod  directAMI;  // AMI-related entry
//    patchMap        (Thermowell solidThermowell);

    // Optional (inherited) entries
//    region          region0;
//    enabled         true;
 //   log             true;
  //  timeStart       0;
//    timeEnd         0.01;
  //  executeControl  timeStep;
    //executeInterval 1;
//    writeControl    timeStep;
  //  writeInterval   1;
//} 

}
//
// ************************************************************************* //
