/*--------------------------------*- C++ -*----------------------------------*\
| =========                 |                                                 |
| \\      /  F ield         | OpenFOAM: The Open Source CFD Toolbox           |
|  \\    /   O peration     | Version:  v2012                                 |
|   \\  /    A nd           | Website:  www.openfoam.com                      |
|    \\/     M anipulation  |                                                 |
\*---------------------------------------------------------------------------*/
FoamFile
{
    version     2.0;
    format      ascii;
    class       extendedFeatureEdgeMesh;
    location    "constant/extendedFeatureEdgeMesh";
    object      Thermowell.extendedFeatureEdgeMesh;
}
// * * * * * * * * * * * * * * * * * * * * * * * * * * * * * * * * * * * * * //

// points

200
(
(0 0.00429 0)
(-0.000269 0.004282 0)
(-0.000538 0.004256 0)
(-0.000804 0.004214 0)
(-0.001067 0.004155 0)
(-0.001326 0.00408 0)
(-0.001579 0.003989 0)
(-0.001827 0.003882 0)
(-0.002067 0.003759 0)
(-0.002299 0.003622 0)
(-0.002522 0.003471 0)
(-0.002735 0.003306 0)
(-0.002937 0.003127 0)
(-0.003127 0.002937 0)
(-0.003305 0.002735 0)
(-0.003471 0.002522 0)
(-0.003622 0.002299 0)
(-0.003759 0.002067 0)
(-0.003882 0.001827 0)
(-0.003989 0.001579 0)
(-0.00408 0.001326 0)
(-0.004155 0.001067 0)
(-0.004214 0.000804 0)
(-0.004256 0.000538 0)
(-0.004282 0.000269 0)
(-0.00429 0 0)
(-0.004282 -0.000269 0)
(-0.004256 -0.000538 0)
(-0.004214 -0.000804 0)
(-0.004155 -0.001067 0)
(-0.00408 -0.001326 0)
(-0.003989 -0.001579 0)
(-0.003882 -0.001827 0)
(-0.003759 -0.002067 0)
(-0.003622 -0.002299 0)
(-0.003471 -0.002522 0)
(-0.003306 -0.002735 0)
(-0.003127 -0.002937 0)
(-0.002937 -0.003127 0)
(-0.002735 -0.003305 0)
(-0.002522 -0.003471 0)
(-0.002299 -0.003622 0)
(-0.002067 -0.003759 0)
(-0.001827 -0.003882 0)
(-0.001579 -0.003989 0)
(-0.001326 -0.00408 0)
(-0.001067 -0.004155 0)
(-0.000804 -0.004214 0)
(-0.000538 -0.004256 0)
(-0.000269 -0.004282 0)
(-0 -0.00429 0)
(0.000269 -0.004282 0)
(0.000538 -0.004256 0)
(0.000804 -0.004214 0)
(0.001067 -0.004155 0)
(0.001326 -0.00408 0)
(0.001579 -0.003989 0)
(0.001827 -0.003882 0)
(0.002067 -0.003759 0)
(0.002299 -0.003622 0)
(0.002522 -0.003471 0)
(0.002735 -0.003306 0)
(0.002937 -0.003127 0)
(0.003127 -0.002937 0)
(0.003306 -0.002735 0)
(0.003471 -0.002522 0)
(0.003622 -0.002299 0)
(0.003759 -0.002067 0)
(0.003882 -0.001827 0)
(0.003989 -0.001579 0)
(0.00408 -0.001326 0)
(0.004155 -0.001067 0)
(0.004214 -0.000804 0)
(0.004256 -0.000538 0)
(0.004282 -0.000269 0)
(0.00429 -0 0)
(0.004282 0.000269 0)
(0.004256 0.000538 0)
(0.004214 0.000804 0)
(0.004155 0.001067 0)
(0.00408 0.001326 0)
(0.003989 0.001579 0)
(0.003882 0.001827 0)
(0.003759 0.002067 0)
(0.003622 0.002299 0)
(0.003471 0.002522 0)
(0.003306 0.002735 0)
(0.003127 0.002937 0)
(0.002937 0.003127 0)
(0.002735 0.003306 0)
(0.002522 0.003471 0)
(0.002299 0.003622 0)
(0.002067 0.003759 0)
(0.001827 0.003882 0)
(0.001579 0.003989 0)
(0.001326 0.00408 0)
(0.001067 0.004155 0)
(0.000804 0.004214 0)
(0.000538 0.004256 0)
(0.000269 0.004282 0)
(0 0.00429 0.03)
(0.000269 0.004282 0.03)
(0.000538 0.004256 0.03)
(0.000804 0.004214 0.03)
(0.001067 0.004155 0.03)
(0.001326 0.00408 0.03)
(0.001579 0.003989 0.03)
(0.001827 0.003882 0.03)
(0.002067 0.003759 0.03)
(0.002299 0.003622 0.03)
(0.002522 0.003471 0.03)
(0.002735 0.003306 0.03)
(0.002937 0.003127 0.03)
(0.003127 0.002937 0.03)
(0.003306 0.002735 0.03)
(0.003471 0.002522 0.03)
(0.003622 0.002299 0.03)
(0.003759 0.002067 0.03)
(0.003882 0.001827 0.03)
(0.003989 0.001579 0.03)
(0.00408 0.001326 0.03)
(0.004155 0.001067 0.03)
(0.004214 0.000804 0.03)
(0.004256 0.000538 0.03)
(0.004282 0.000269 0.03)
(0.00429 -0 0.03)
(0.004282 -0.000269 0.03)
(0.004256 -0.000538 0.03)
(0.004214 -0.000804 0.03)
(0.004155 -0.001067 0.03)
(0.00408 -0.001326 0.03)
(0.003989 -0.001579 0.03)
(0.003882 -0.001827 0.03)
(0.003759 -0.002067 0.03)
(0.003622 -0.002299 0.03)
(0.003471 -0.002522 0.03)
(0.003306 -0.002735 0.03)
(0.003127 -0.002937 0.03)
(0.002937 -0.003127 0.03)
(0.002735 -0.003306 0.03)
(0.002522 -0.003471 0.03)
(0.002299 -0.003622 0.03)
(0.002067 -0.003759 0.03)
(0.001827 -0.003882 0.03)
(0.001579 -0.003989 0.03)
(0.001326 -0.00408 0.03)
(0.001067 -0.004155 0.03)
(0.000804 -0.004214 0.03)
(0.000538 -0.004256 0.03)
(0.000269 -0.004282 0.03)
(-0 -0.00429 0.03)
(-0.000269 -0.004282 0.03)
(-0.000538 -0.004256 0.03)
(-0.000804 -0.004214 0.03)
(-0.001067 -0.004155 0.03)
(-0.001326 -0.00408 0.03)
(-0.001579 -0.003989 0.03)
(-0.001827 -0.003882 0.03)
(-0.002067 -0.003759 0.03)
(-0.002299 -0.003622 0.03)
(-0.002522 -0.003471 0.03)
(-0.002735 -0.003305 0.03)
(-0.002937 -0.003127 0.03)
(-0.003127 -0.002937 0.03)
(-0.003306 -0.002735 0.03)
(-0.003471 -0.002522 0.03)
(-0.003622 -0.002299 0.03)
(-0.003759 -0.002067 0.03)
(-0.003882 -0.001827 0.03)
(-0.003989 -0.001579 0.03)
(-0.00408 -0.001326 0.03)
(-0.004155 -0.001067 0.03)
(-0.004214 -0.000804 0.03)
(-0.004256 -0.000538 0.03)
(-0.004282 -0.000269 0.03)
(-0.00429 0 0.03)
(-0.004282 0.000269 0.03)
(-0.004256 0.000538 0.03)
(-0.004214 0.000804 0.03)
(-0.004155 0.001067 0.03)
(-0.00408 0.001326 0.03)
(-0.003989 0.001579 0.03)
(-0.003882 0.001827 0.03)
(-0.003759 0.002067 0.03)
(-0.003622 0.002299 0.03)
(-0.003471 0.002522 0.03)
(-0.003305 0.002735 0.03)
(-0.003127 0.002937 0.03)
(-0.002937 0.003127 0.03)
(-0.002735 0.003306 0.03)
(-0.002522 0.003471 0.03)
(-0.002299 0.003622 0.03)
(-0.002067 0.003759 0.03)
(-0.001827 0.003882 0.03)
(-0.001579 0.003989 0.03)
(-0.001326 0.00408 0.03)
(-0.001067 0.004155 0.03)
(-0.000804 0.004214 0.03)
(-0.000538 0.004256 0.03)
(-0.000269 0.004282 0.03)
)

// edges

200
(
(100 101)
(101 102)
(102 103)
(103 104)
(104 105)
(105 106)
(106 107)
(107 108)
(108 109)
(109 110)
(110 111)
(111 112)
(112 113)
(113 114)
(114 115)
(115 116)
(116 117)
(117 118)
(118 119)
(119 120)
(120 121)
(121 122)
(122 123)
(123 124)
(124 125)
(125 126)
(126 127)
(127 128)
(128 129)
(129 130)
(130 131)
(131 132)
(132 133)
(133 134)
(134 135)
(135 136)
(136 137)
(137 138)
(138 139)
(139 140)
(140 141)
(141 142)
(142 143)
(143 144)
(144 145)
(145 146)
(146 147)
(147 148)
(148 149)
(149 150)
(150 151)
(151 152)
(152 153)
(153 154)
(154 155)
(155 156)
(156 157)
(157 158)
(158 159)
(159 160)
(160 161)
(161 162)
(162 163)
(163 164)
(164 165)
(165 166)
(166 167)
(167 168)
(168 169)
(169 170)
(170 171)
(171 172)
(172 173)
(173 174)
(174 175)
(175 176)
(176 177)
(177 178)
(178 179)
(179 180)
(180 181)
(181 182)
(182 183)
(183 184)
(184 185)
(185 186)
(186 187)
(187 188)
(188 189)
(189 190)
(190 191)
(191 192)
(192 193)
(193 194)
(194 195)
(195 196)
(196 197)
(197 198)
(199 198)
(100 199)
(0 1)
(1 2)
(2 3)
(3 4)
(4 5)
(5 6)
(6 7)
(7 8)
(8 9)
(9 10)
(10 11)
(11 12)
(12 13)
(13 14)
(14 15)
(15 16)
(16 17)
(17 18)
(18 19)
(19 20)
(20 21)
(21 22)
(22 23)
(23 24)
(24 25)
(25 26)
(26 27)
(27 28)
(28 29)
(29 30)
(30 31)
(31 32)
(32 33)
(33 34)
(34 35)
(35 36)
(36 37)
(37 38)
(38 39)
(39 40)
(40 41)
(41 42)
(42 43)
(43 44)
(44 45)
(45 46)
(46 47)
(47 48)
(48 49)
(49 50)
(50 51)
(51 52)
(52 53)
(53 54)
(54 55)
(55 56)
(56 57)
(57 58)
(58 59)
(59 60)
(60 61)
(61 62)
(62 63)
(63 64)
(64 65)
(65 66)
(66 67)
(67 68)
(68 69)
(69 70)
(70 71)
(71 72)
(72 73)
(73 74)
(74 75)
(75 76)
(76 77)
(77 78)
(78 79)
(79 80)
(80 81)
(81 82)
(82 83)
(83 84)
(84 85)
(85 86)
(86 87)
(87 88)
(88 89)
(89 90)
(90 91)
(91 92)
(92 93)
(93 94)
(94 95)
(95 96)
(96 97)
(97 98)
(98 99)
(99 0)
)

// concaveStart mixedStart nonFeatureStart
0 0 0
// internalStart flatStart openStart multipleStart
100 100 100 200
// normals

250
(
(-0.0297269 0.999558 0)
(-0.0962067 0.995361 0)
(-0.155962 0.987763 0)
(-0.218893 0.975749 0)
(-0.278149 0.960538 0)
(-0.338456 0.940982 0)
(-0.396152 0.918185 0)
(-0.456091 0.889933 0)
(-0.508479 0.861075 0)
(-0.560684 0.82803 0)
(-0.612397 0.79055 0)
(-0.663213 0.74843 0)
(-0.707107 0.707107 0)
(-0.750271 0.66113 0)
(-0.788754 0.614709 0)
(-0.82803 0.560684 0)
(-0.861075 0.508479 0)
(-0.889933 0.456091 0)
(-0.918185 0.396152 0)
(-0.940982 0.338456 0)
(-0.960538 0.278149 0)
(-0.975749 0.218893 0)
(-0.987763 0.155962 0)
(-0.995361 0.0962067 0)
(-0.999558 0.0297269 0)
(-0.999558 -0.0297269 0)
(-0.995361 -0.0962067 0)
(-0.987763 -0.155962 0)
(-0.975749 -0.218893 0)
(-0.960538 -0.278149 0)
(-0.940982 -0.338456 0)
(-0.918185 -0.396152 0)
(-0.889933 -0.456091 0)
(-0.861075 -0.508479 0)
(-0.82803 -0.560684 0)
(-0.79055 -0.612397 0)
(-0.74843 -0.663213 0)
(-0.707107 -0.707107 0)
(-0.66113 -0.750271 0)
(-0.614709 -0.788754 0)
(-0.560684 -0.82803 0)
(-0.508479 -0.861075 0)
(-0.456091 -0.889933 0)
(-0.396152 -0.918185 0)
(-0.338456 -0.940982 0)
(-0.278149 -0.960538 0)
(-0.218893 -0.975749 0)
(-0.155962 -0.987763 0)
(-0.0962067 -0.995361 0)
(-0.0297269 -0.999558 0)
(0.0297269 -0.999558 0)
(0.0962067 -0.995361 0)
(0.155962 -0.987763 0)
(0.218893 -0.975749 0)
(0.278149 -0.960538 0)
(0.338456 -0.940982 0)
(0.396152 -0.918185 0)
(0.456091 -0.889933 0)
(0.508479 -0.861075 0)
(0.560684 -0.82803 0)
(0.612397 -0.79055 0)
(0.663213 -0.74843 0)
(0.707107 -0.707107 0)
(0.74843 -0.663213 0)
(0.79055 -0.612397 0)
(0.82803 -0.560684 0)
(0.861075 -0.508479 0)
(0.889933 -0.456091 0)
(0.918185 -0.396152 0)
(0.940982 -0.338456 0)
(0.960538 -0.278149 0)
(0.975749 -0.218893 0)
(0.987763 -0.155962 0)
(0.995361 -0.0962067 0)
(0.999558 -0.0297269 0)
(0.999558 0.0297269 0)
(0.995361 0.0962067 0)
(0.987763 0.155962 0)
(0.975749 0.218893 0)
(0.960538 0.278149 0)
(0.940982 0.338456 0)
(0.918185 0.396152 0)
(0.889933 0.456091 0)
(0.861075 0.508479 0)
(0.82803 0.560684 0)
(0.79055 0.612397 0)
(0.74843 0.663213 0)
(0.707107 0.707107 0)
(0.663213 0.74843 0)
(0.612397 0.79055 0)
(0.560684 0.82803 0)
(0.508479 0.861075 0)
(0.456091 0.889933 0)
(0.396152 0.918185 0)
(0.338456 0.940982 0)
(0.278149 0.960538 0)
(0.218893 0.975749 0)
(0.155962 0.987763 0)
(0.0962067 0.995361 0)
(0.0297269 0.999558 0)
(0.0297269 0.999558 -0)
(0 0 1)
(0.0962067 0.995361 -0)
(0.155962 0.987763 -0)
(0 0 1)
(0.218893 0.975749 -0)
(0.278149 0.960538 -0)
(0 0 1)
(0.338456 0.940982 -0)
(0.396152 0.918185 -0)
(0 0 1)
(0.456091 0.889933 -0)
(0.508479 0.861075 -0)
(0 0 1)
(0.560684 0.82803 -0)
(0.612397 0.79055 -0)
(0 0 1)
(0.663213 0.74843 -0)
(0.707107 0.707107 -0)
(0 0 1)
(0.74843 0.663213 -0)
(0.79055 0.612397 -0)
(0 0 1)
(0.82803 0.560684 -0)
(0.861075 0.508479 -0)
(0 0 1)
(0.889933 0.456091 -0)
(0.918185 0.396152 -0)
(0 0 1)
(0.940982 0.338456 -0)
(0.960538 0.278149 -0)
(0 0 1)
(0.975749 0.218893 -0)
(0.987763 0.155962 -0)
(0 0 1)
(0.995361 0.0962067 -0)
(0.999558 0.0297269 -0)
(0 0 1)
(0.999558 -0.0297269 0)
(0.995361 -0.0962067 0)
(0 0 1)
(0.987763 -0.155962 0)
(0.975749 -0.218893 0)
(0 0 1)
(0.960538 -0.278149 0)
(0.940982 -0.338456 0)
(0 0 1)
(0.918185 -0.396152 0)
(0.889933 -0.456091 0)
(0 0 1)
(0.861075 -0.508479 0)
(0.82803 -0.560684 0)
(0 0 1)
(0.79055 -0.612397 0)
(0.74843 -0.663213 0)
(0 0 1)
(0.707107 -0.707107 0)
(0.663213 -0.74843 0)
(0 0 1)
(0.612397 -0.79055 0)
(0.560684 -0.82803 0)
(0 0 1)
(0.508479 -0.861075 0)
(0.456091 -0.889933 0)
(0 0 1)
(0.396152 -0.918185 0)
(0.338456 -0.940982 0)
(0 0 1)
(0.278149 -0.960538 0)
(0.218893 -0.975749 0)
(0 0 1)
(0.155962 -0.987763 0)
(0.0962067 -0.995361 0)
(0 0 1)
(0.0297269 -0.999558 0)
(-0.0297269 -0.999558 0)
(0 0 1)
(-0.0962067 -0.995361 0)
(-0.155962 -0.987763 0)
(0 0 1)
(-0.218893 -0.975749 0)
(-0.278149 -0.960538 0)
(0 0 1)
(-0.338456 -0.940982 0)
(-0.396152 -0.918185 0)
(0 0 1)
(-0.456091 -0.889933 0)
(-0.508479 -0.861075 0)
(0 0 1)
(-0.560684 -0.82803 0)
(-0.614709 -0.788754 0)
(0 0 1)
(-0.66113 -0.750271 0)
(-0.707107 -0.707107 0)
(0 0 1)
(-0.74843 -0.663213 0)
(-0.79055 -0.612397 0)
(0 0 1)
(-0.82803 -0.560684 0)
(-0.861075 -0.508479 0)
(0 0 1)
(-0.889933 -0.456091 0)
(-0.918185 -0.396152 0)
(0 0 1)
(-0.940982 -0.338456 0)
(-0.960538 -0.278149 0)
(0 0 1)
(-0.975749 -0.218893 0)
(-0.987763 -0.155962 0)
(0 0 1)
(-0.995361 -0.0962067 0)
(-0.999558 -0.0297269 0)
(0 0 1)
(-0.999558 0.0297269 0)
(-0.995361 0.0962067 0)
(0 0 1)
(-0.987763 0.155962 0)
(-0.975749 0.218893 0)
(0 0 1)
(-0.960538 0.278149 0)
(-0.940982 0.338456 0)
(0 0 1)
(-0.918185 0.396152 0)
(-0.889933 0.456091 0)
(0 0 1)
(-0.861075 0.508479 0)
(-0.82803 0.560684 0)
(0 0 1)
(-0.788754 0.614709 0)
(-0.750271 0.66113 0)
(0 0 1)
(-0.707107 0.707107 0)
(-0.663213 0.74843 0)
(0 0 1)
(-0.612397 0.79055 0)
(-0.560684 0.82803 0)
(0 0 1)
(-0.508479 0.861075 0)
(-0.456091 0.889933 0)
(0 0 1)
(-0.396152 0.918185 0)
(-0.338456 0.940982 0)
(0 0 1)
(-0.278149 0.960538 0)
(-0.218893 0.975749 0)
(0 0 1)
(-0.155962 0.987763 0)
(0 0 1)
(-0.0962067 0.995361 0)
(-0.0297269 0.999558 0)
)

// normal volume types

250
(
0
0
0
0
0
0
0
0
0
0
0
0
0
0
0
0
0
0
0
0
0
0
0
0
0
0
0
0
0
0
0
0
0
0
0
0
0
0
0
0
0
0
0
0
0
0
0
0
0
0
0
0
0
0
0
0
0
0
0
0
0
0
0
0
0
0
0
0
0
0
0
0
0
0
0
0
0
0
0
0
0
0
0
0
0
0
0
0
0
0
0
0
0
0
0
0
0
0
0
0
0
0
0
0
0
0
0
0
0
0
0
0
0
0
0
0
0
0
0
0
0
0
0
0
0
0
0
0
0
0
0
0
0
0
0
0
0
0
0
0
0
0
0
0
0
0
0
0
0
0
0
0
0
0
0
0
0
0
0
0
0
0
0
0
0
0
0
0
0
0
0
0
0
0
0
0
0
0
0
0
0
0
0
0
0
0
0
0
0
0
0
0
0
0
0
0
0
0
0
0
0
0
0
0
0
0
0
0
0
0
0
0
0
0
0
0
0
0
0
0
0
0
0
0
0
0
0
0
0
0
0
0
0
0
0
0
0
0
0
0
0
0
0
0
0
0
0
0
0
0
)

// normalDirections

200
(
2(1 -1)
2(1 -1)
2(1 -1)
2(1 -1)
2(1 -1)
2(1 -1)
2(1 -1)
2(1 -1)
2(1 -1)
2(1 -1)
2(1 -1)
2(1 -1)
2(1 -1)
2(1 -1)
2(1 -1)
2(1 -1)
2(1 -1)
2(1 -1)
2(1 -1)
2(1 -1)
2(1 -1)
2(1 -1)
2(1 -1)
2(1 -1)
2(1 -1)
2(1 -1)
2(1 -1)
2(1 -1)
2(1 -1)
2(1 -1)
2(1 -1)
2(1 -1)
2(1 -1)
2(1 -1)
2(1 -1)
2(1 -1)
2(1 -1)
2(1 -1)
2(1 -1)
2(1 -1)
2(1 -1)
2(1 -1)
2(1 -1)
2(1 -1)
2(1 -1)
2(1 -1)
2(1 -1)
2(1 -1)
2(1 -1)
2(1 -1)
2(1 -1)
2(1 -1)
2(1 -1)
2(1 -1)
2(1 -1)
2(1 -1)
2(1 -1)
2(1 -1)
2(1 -1)
2(1 -1)
2(1 -1)
2(1 -1)
2(1 -1)
2(1 -1)
2(1 -1)
2(1 -1)
2(1 -1)
2(1 -1)
2(1 -1)
2(1 -1)
2(1 -1)
2(1 -1)
2(1 -1)
2(1 -1)
2(1 -1)
2(1 -1)
2(1 -1)
2(1 -1)
2(1 -1)
2(1 -1)
2(1 -1)
2(1 -1)
2(1 -1)
2(1 -1)
2(1 -1)
2(1 -1)
2(1 -1)
2(1 -1)
2(1 -1)
2(1 -1)
2(1 -1)
2(1 -1)
2(1 -1)
2(1 -1)
2(1 -1)
2(1 -1)
2(1 -1)
2(1 -1)
2(1 -1)
2(1 -1)
1(1)
1(1)
1(1)
1(1)
1(1)
1(1)
1(1)
1(1)
1(1)
1(1)
1(1)
1(1)
1(1)
1(1)
1(1)
1(1)
1(1)
1(1)
1(1)
1(1)
1(1)
1(1)
1(1)
1(1)
1(1)
1(1)
1(1)
1(1)
1(1)
1(1)
1(1)
1(1)
1(1)
1(1)
1(1)
1(1)
1(1)
1(1)
1(1)
1(1)
1(1)
1(1)
1(1)
1(1)
1(1)
1(1)
1(1)
1(1)
1(1)
1(1)
1(1)
1(1)
1(1)
1(1)
1(1)
1(1)
1(1)
1(1)
1(1)
1(1)
1(1)
1(1)
1(1)
1(1)
1(1)
1(1)
1(1)
1(1)
1(1)
1(1)
1(1)
1(1)
1(1)
1(1)
1(1)
1(1)
1(1)
1(1)
1(1)
1(1)
1(1)
1(1)
1(1)
1(1)
1(1)
1(1)
1(1)
1(1)
1(1)
1(1)
1(1)
1(1)
1(1)
1(1)
1(1)
1(1)
1(1)
1(1)
1(1)
1(1)
)

// edgeNormals

200
(
2(100 101)
2(102 101)
2(103 104)
2(105 104)
2(106 107)
2(108 107)
2(109 110)
2(111 110)
2(112 113)
2(114 113)
2(115 116)
2(117 116)
2(118 119)
2(120 119)
2(121 122)
2(123 122)
2(124 125)
2(126 125)
2(127 128)
2(129 128)
2(130 131)
2(132 131)
2(133 134)
2(135 134)
2(136 137)
2(138 137)
2(139 140)
2(141 140)
2(142 143)
2(144 143)
2(145 146)
2(147 146)
2(148 149)
2(150 149)
2(151 152)
2(153 152)
2(154 155)
2(156 155)
2(157 158)
2(159 158)
2(160 161)
2(162 161)
2(163 164)
2(165 164)
2(166 167)
2(168 167)
2(169 170)
2(171 170)
2(172 173)
2(174 173)
2(175 176)
2(177 176)
2(178 179)
2(180 179)
2(181 182)
2(183 182)
2(184 185)
2(186 185)
2(187 188)
2(189 188)
2(190 191)
2(192 191)
2(193 194)
2(195 194)
2(196 197)
2(198 197)
2(199 200)
2(201 200)
2(202 203)
2(204 203)
2(205 206)
2(207 206)
2(208 209)
2(210 209)
2(211 212)
2(213 212)
2(214 215)
2(216 215)
2(217 218)
2(219 218)
2(220 221)
2(222 221)
2(223 224)
2(225 224)
2(226 227)
2(228 227)
2(229 230)
2(231 230)
2(232 233)
2(234 233)
2(235 236)
2(237 236)
2(238 239)
2(240 239)
2(241 242)
2(243 242)
2(244 245)
2(246 245)
2(247 248)
2(247 249)
1(0)
1(1)
1(2)
1(3)
1(4)
1(5)
1(6)
1(7)
1(8)
1(9)
1(10)
1(11)
1(12)
1(13)
1(14)
1(15)
1(16)
1(17)
1(18)
1(19)
1(20)
1(21)
1(22)
1(23)
1(24)
1(25)
1(26)
1(27)
1(28)
1(29)
1(30)
1(31)
1(32)
1(33)
1(34)
1(35)
1(36)
1(37)
1(38)
1(39)
1(40)
1(41)
1(42)
1(43)
1(44)
1(45)
1(46)
1(47)
1(48)
1(49)
1(50)
1(51)
1(52)
1(53)
1(54)
1(55)
1(56)
1(57)
1(58)
1(59)
1(60)
1(61)
1(62)
1(63)
1(64)
1(65)
1(66)
1(67)
1(68)
1(69)
1(70)
1(71)
1(72)
1(73)
1(74)
1(75)
1(76)
1(77)
1(78)
1(79)
1(80)
1(81)
1(82)
1(83)
1(84)
1(85)
1(86)
1(87)
1(88)
1(89)
1(90)
1(91)
1(92)
1(93)
1(94)
1(95)
1(96)
1(97)
1(98)
1(99)
)

// featurePointNormals
0()
// featurePointEdges
0()
// regionEdges

100
(
100
101
102
103
104
105
106
107
108
109
110
111
112
113
114
115
116
117
118
119
120
121
122
123
124
125
126
127
128
129
130
131
132
133
134
135
136
137
138
139
140
141
142
143
144
145
146
147
148
149
150
151
152
153
154
155
156
157
158
159
160
161
162
163
164
165
166
167
168
169
170
171
172
173
174
175
176
177
178
179
180
181
182
183
184
185
186
187
188
189
190
191
192
193
194
195
196
197
198
199
)



// ************************************************************************* //
