/*--------------------------------*- C++ -*----------------------------------*\
| =========                 |                                                 |
| \\      /  F ield         | OpenFOAM: The Open Source CFD Toolbox           |
|  \\    /   O peration     | Version:  v2012                                 |
|   \\  /    A nd           | Website:  www.openfoam.com                      |
|    \\/     M anipulation  |                                                 |
\*---------------------------------------------------------------------------*/
FoamFile
{
    version     2.0;
    format      ascii;
    class       extendedFeatureEdgeMesh;
    location    "constant/extendedFeatureEdgeMesh";
    object      merged.extendedFeatureEdgeMesh;
}
// * * * * * * * * * * * * * * * * * * * * * * * * * * * * * * * * * * * * * //

// points

64
(
(0 0.00429 0.015)
(0.000837 0.004208 0.015)
(0.001642 0.003963 0.015)
(0.002383 0.003567 0.015)
(0.003033 0.003033 0.015)
(0.003567 0.002383 0.015)
(0.003963 0.001642 0.015)
(0.004208 0.000837 0.015)
(0.00429 0 0.015)
(0.004208 -0.000837 0.015)
(0.003963 -0.001642 0.015)
(0.003567 -0.002383 0.015)
(0.003033 -0.003033 0.015)
(0.002383 -0.003567 0.015)
(0.001642 -0.003963 0.015)
(0.000837 -0.004208 0.015)
(-0 -0.00429 0.015)
(-0.000837 -0.004208 0.015)
(-0.001642 -0.003963 0.015)
(-0.002383 -0.003567 0.015)
(-0.003033 -0.003033 0.015)
(-0.003567 -0.002383 0.015)
(-0.003963 -0.001642 0.015)
(-0.004208 -0.000837 0.015)
(-0.00429 0 0.015)
(-0.004208 0.000837 0.015)
(-0.003963 0.001642 0.015)
(-0.003567 0.002383 0.015)
(-0.003033 0.003033 0.015)
(-0.002383 0.003567 0.015)
(-0.001642 0.003963 0.015)
(-0.000837 0.004208 0.015)
(-0.000837 0.004208 -0.015)
(0 0.00429 -0.015)
(0.000837 0.004208 -0.015)
(0.001642 0.003963 -0.015)
(0.002383 0.003567 -0.015)
(0.003033 0.003033 -0.015)
(0.003567 0.002383 -0.015)
(0.003963 0.001642 -0.015)
(0.004208 0.000837 -0.015)
(0.00429 0 -0.015)
(0.004208 -0.000837 -0.015)
(0.003963 -0.001642 -0.015)
(0.003567 -0.002383 -0.015)
(0.003033 -0.003033 -0.015)
(0.002383 -0.003567 -0.015)
(0.001642 -0.003963 -0.015)
(0.000837 -0.004208 -0.015)
(-0 -0.00429 -0.015)
(-0.000837 -0.004208 -0.015)
(-0.001642 -0.003963 -0.015)
(-0.002383 -0.003567 -0.015)
(-0.003033 -0.003033 -0.015)
(-0.003567 -0.002383 -0.015)
(-0.003963 -0.001642 -0.015)
(-0.004208 -0.000837 -0.015)
(-0.00429 0 -0.015)
(-0.004208 0.000837 -0.015)
(-0.003963 0.001642 -0.015)
(-0.003567 0.002383 -0.015)
(-0.003033 0.003033 -0.015)
(-0.002383 0.003567 -0.015)
(-0.001642 0.003963 -0.015)
)

// edges

64
(
(0 1)
(1 2)
(2 3)
(3 4)
(4 5)
(5 6)
(6 7)
(7 8)
(8 9)
(9 10)
(10 11)
(11 12)
(12 13)
(13 14)
(14 15)
(15 16)
(16 17)
(17 18)
(18 19)
(19 20)
(20 21)
(21 22)
(22 23)
(23 24)
(24 25)
(25 26)
(26 27)
(27 28)
(28 29)
(29 30)
(31 30)
(0 31)
(32 33)
(33 34)
(35 36)
(34 35)
(37 38)
(36 37)
(39 40)
(38 39)
(41 42)
(40 41)
(43 44)
(42 43)
(45 46)
(44 45)
(47 48)
(46 47)
(49 50)
(48 49)
(51 52)
(50 51)
(53 54)
(52 53)
(55 56)
(54 55)
(57 58)
(56 57)
(59 60)
(58 59)
(61 62)
(60 61)
(63 32)
(62 63)
)

// concaveStart mixedStart nonFeatureStart
0 0 0
// internalStart flatStart openStart multipleStart
64 64 64 64
// normals

96
(
(0.0975023 0.995235 -0)
(0 0 1)
(0.291161 0.956674 -0)
(0.47133 0.881957 -0)
(0 0 1)
(0.63479 0.772685 -0)
(0.772685 0.63479 -0)
(0 0 1)
(0.881957 0.47133 -0)
(0.956674 0.291161 -0)
(0 0 1)
(0.995235 0.0975023 -0)
(0.995235 -0.0975023 0)
(0 0 1)
(0.956674 -0.291161 0)
(0.881957 -0.47133 0)
(0 0 1)
(0.772685 -0.63479 0)
(0.63479 -0.772685 0)
(0 0 1)
(0.47133 -0.881957 0)
(0.291161 -0.956674 0)
(0 0 1)
(0.0975023 -0.995235 0)
(-0.0975023 -0.995235 0)
(0 0 1)
(-0.291161 -0.956674 0)
(-0.47133 -0.881957 0)
(0 0 1)
(-0.63479 -0.772685 0)
(-0.772685 -0.63479 0)
(0 0 1)
(-0.881957 -0.47133 0)
(-0.956674 -0.291161 0)
(0 0 1)
(-0.995235 -0.0975023 0)
(-0.995235 0.0975023 0)
(0 0 1)
(-0.956674 0.291161 0)
(-0.881957 0.47133 0)
(0 0 1)
(-0.772685 0.63479 0)
(-0.63479 0.772685 0)
(0 0 1)
(-0.47133 0.881957 0)
(0 0 1)
(-0.291161 0.956674 0)
(-0.0975023 0.995235 0)
(0 0 -1)
(-0.0975023 0.995235 0)
(0.0975023 0.995235 0)
(0 0 -1)
(0.47133 0.881957 0)
(0.291161 0.956674 0)
(0 0 -1)
(0.772685 0.63479 0)
(0.63479 0.772685 0)
(0 0 -1)
(0.956674 0.291161 0)
(0.881957 0.47133 0)
(0 0 -1)
(0.995235 -0.0975023 0)
(0.995235 0.0975023 0)
(0 0 -1)
(0.881957 -0.47133 0)
(0.956674 -0.291161 0)
(0 0 -1)
(0.63479 -0.772685 0)
(0.772685 -0.63479 0)
(0 0 -1)
(0.291161 -0.956674 0)
(0.47133 -0.881957 0)
(-0 0 -1)
(-0.0975023 -0.995235 0)
(0.0975023 -0.995235 0)
(0 0 -1)
(-0.47133 -0.881957 0)
(-0.291161 -0.956674 0)
(0 0 -1)
(-0.772685 -0.63479 0)
(-0.63479 -0.772685 0)
(0 0 -1)
(-0.956674 -0.291161 0)
(-0.881957 -0.47133 0)
(0 0 -1)
(-0.995235 0.0975023 0)
(-0.995235 -0.0975023 0)
(0 0 -1)
(-0.881957 0.47133 0)
(-0.956674 0.291161 0)
(0 0 -1)
(-0.63479 0.772685 0)
(-0.772685 0.63479 0)
(0 0 -1)
(-0.291161 0.956674 0)
(-0.47133 0.881957 0)
)

// normal volume types

96
(
0
0
0
0
0
0
0
0
0
0
0
0
0
0
0
0
0
0
0
0
0
0
0
0
0
0
0
0
0
0
0
0
0
0
0
0
0
0
0
0
0
0
0
0
0
0
0
0
0
0
0
0
0
0
0
0
0
0
0
0
0
0
0
0
0
0
0
0
0
0
0
0
0
0
0
0
0
0
0
0
0
0
0
0
0
0
0
0
0
0
0
0
0
0
0
0
)

// normalDirections

64
(
2(1 -1)
2(1 -1)
2(1 -1)
2(1 -1)
2(1 -1)
2(1 -1)
2(1 -1)
2(1 -1)
2(1 -1)
2(1 -1)
2(1 -1)
2(1 -1)
2(1 -1)
2(1 -1)
2(1 -1)
2(1 -1)
2(1 -1)
2(1 -1)
2(1 -1)
2(1 -1)
2(1 -1)
2(1 -1)
2(1 -1)
2(1 -1)
2(1 -1)
2(1 -1)
2(1 -1)
2(1 -1)
2(1 -1)
2(1 -1)
2(1 -1)
2(1 -1)
2(1 -1)
2(1 -1)
2(1 -1)
2(1 -1)
2(1 -1)
2(1 -1)
2(1 -1)
2(1 -1)
2(1 -1)
2(1 -1)
2(1 -1)
2(1 -1)
2(1 -1)
2(1 -1)
2(1 -1)
2(1 -1)
2(1 -1)
2(1 -1)
2(1 -1)
2(1 -1)
2(1 -1)
2(1 -1)
2(1 -1)
2(1 -1)
2(1 -1)
2(1 -1)
2(1 -1)
2(1 -1)
2(1 -1)
2(1 -1)
2(1 -1)
2(1 -1)
)

// edgeNormals

64
(
2(0 1)
2(2 1)
2(3 4)
2(5 4)
2(6 7)
2(8 7)
2(9 10)
2(11 10)
2(12 13)
2(14 13)
2(15 16)
2(17 16)
2(18 19)
2(20 19)
2(21 22)
2(23 22)
2(24 25)
2(26 25)
2(27 28)
2(29 28)
2(30 31)
2(32 31)
2(33 34)
2(35 34)
2(36 37)
2(38 37)
2(39 40)
2(41 40)
2(42 43)
2(44 43)
2(45 46)
2(45 47)
2(48 49)
2(48 50)
2(51 52)
2(51 53)
2(54 55)
2(54 56)
2(57 58)
2(57 59)
2(60 61)
2(60 62)
2(63 64)
2(63 65)
2(66 67)
2(66 68)
2(69 70)
2(69 71)
2(72 73)
2(72 74)
2(75 76)
2(75 77)
2(78 79)
2(78 80)
2(81 82)
2(81 83)
2(84 85)
2(84 86)
2(87 88)
2(87 89)
2(90 91)
2(90 92)
2(93 94)
2(93 95)
)

// featurePointNormals
0()
// featurePointEdges
0()
// regionEdges
0()


// ************************************************************************* //
