/*--------------------------------*- C++ -*----------------------------------*\
  =========                 |
  \\      /  F ield         | OpenFOAM: The Open Source CFD Toolbox
   \\    /   O peration     | Website:  https://openfoam.org
    \\  /    A nd           | Version:  6
     \\/     M anipulation  |
\*---------------------------------------------------------------------------*/
FoamFile
{
    version     2.0;
    format      ascii;
    class       polyBoundaryMesh;
    location    "constant/polyMesh";
    object      boundary;
}
// * * * * * * * * * * * * * * * * * * * * * * * * * * * * * * * * * * * * * //

2
(
    Bottom
    {
        type            patch;
        physicalType    patch;
        nFaces          242;
        startFace       49038;
    }
    Thermowell
    {
        type            patch;
        physicalType    patch;
        nFaces          3322;
        startFace       49280;
    }
)

// ************************************************************************* //
