/*--------------------------------*- C++ -*----------------------------------*\
| =========                 |                                                 |
| \\      /  F ield         | OpenFOAM: The Open Source CFD Toolbox           |
|  \\    /   O peration     | Version:  v2012                                 |
|   \\  /    A nd           | Website:  www.openfoam.com                      |
|    \\/     M anipulation  |                                                 |
\*---------------------------------------------------------------------------*/
FoamFile
{
    version     2.0;
    format      ascii;
    class       extendedFeatureEdgeMesh;
    location    "constant/extendedFeatureEdgeMesh";
    object      PipeWalls.extendedFeatureEdgeMesh;
}
// * * * * * * * * * * * * * * * * * * * * * * * * * * * * * * * * * * * * * //

// points

200
(
(0.15 0.05 0.05)
(0.15 0.049901 0.04686)
(0.15 0.049606 0.043733)
(0.15 0.049114 0.040631)
(0.15 0.048429 0.037565)
(0.15 0.047553 0.034549)
(0.15 0.046489 0.031594)
(0.15 0.045241 0.028711)
(0.15 0.043815 0.025912)
(0.15 0.042216 0.023209)
(0.15 0.040451 0.020611)
(0.15 0.038526 0.018129)
(0.15 0.036448 0.015773)
(0.15 0.034227 0.013552)
(0.15 0.031871 0.011474)
(0.15 0.029389 0.009549)
(0.15 0.026791 0.007784)
(0.15 0.024088 0.006185)
(0.15 0.021289 0.004759)
(0.15 0.018406 0.003511)
(0.15 0.015451 0.002447)
(0.15 0.012434 0.001571)
(0.15 0.009369 0.000886)
(0.15 0.006267 0.000394)
(0.15 0.00314 9.9e-05)
(0.15 -0 -0)
(0.15 -0.00314 9.9e-05)
(0.15 -0.006267 0.000394)
(0.15 -0.009369 0.000886)
(0.15 -0.012435 0.001571)
(0.15 -0.015451 0.002447)
(0.15 -0.018406 0.003511)
(0.15 -0.021289 0.004759)
(0.15 -0.024088 0.006185)
(0.15 -0.026791 0.007784)
(0.15 -0.029389 0.009549)
(0.15 -0.031871 0.011474)
(0.15 -0.034227 0.013552)
(0.15 -0.036448 0.015773)
(0.15 -0.038526 0.018129)
(0.15 -0.040451 0.020611)
(0.15 -0.042216 0.023209)
(0.15 -0.043815 0.025912)
(0.15 -0.045241 0.028711)
(0.15 -0.046489 0.031594)
(0.15 -0.047553 0.034549)
(0.15 -0.048429 0.037566)
(0.15 -0.049114 0.040631)
(0.15 -0.049606 0.043733)
(0.15 -0.049901 0.046861)
(0.15 -0.05 0.05)
(0.15 -0.049901 0.05314)
(0.15 -0.049606 0.056267)
(0.15 -0.049114 0.059369)
(0.15 -0.048429 0.062435)
(0.15 -0.047553 0.065451)
(0.15 -0.046489 0.068406)
(0.15 -0.045241 0.071289)
(0.15 -0.043815 0.074088)
(0.15 -0.042216 0.076791)
(0.15 -0.040451 0.079389)
(0.15 -0.038526 0.081871)
(0.15 -0.036448 0.084227)
(0.15 -0.034227 0.086448)
(0.15 -0.031871 0.088526)
(0.15 -0.029389 0.090451)
(0.15 -0.026791 0.092216)
(0.15 -0.024088 0.093815)
(0.15 -0.021289 0.095241)
(0.15 -0.018406 0.096489)
(0.15 -0.015451 0.097553)
(0.15 -0.012434 0.098429)
(0.15 -0.009369 0.099114)
(0.15 -0.006267 0.099606)
(0.15 -0.003139 0.099901)
(0.15 0 0.1)
(0.15 0.00314 0.099901)
(0.15 0.006267 0.099606)
(0.15 0.009369 0.099114)
(0.15 0.012435 0.098429)
(0.15 0.015451 0.097553)
(0.15 0.018406 0.096489)
(0.15 0.021289 0.095241)
(0.15 0.024088 0.093815)
(0.15 0.026791 0.092216)
(0.15 0.029389 0.090451)
(0.15 0.031871 0.088526)
(0.15 0.034227 0.086448)
(0.15 0.036448 0.084227)
(0.15 0.038526 0.081871)
(0.15 0.040451 0.079389)
(0.15 0.042216 0.076791)
(0.15 0.043815 0.074088)
(0.15 0.045241 0.071289)
(0.15 0.046489 0.068406)
(0.15 0.047553 0.065451)
(0.15 0.048429 0.062434)
(0.15 0.049114 0.059369)
(0.15 0.049606 0.056267)
(0.15 0.049901 0.053139)
(-0.05 0.05 0.05)
(-0.05 0.049901 0.053139)
(-0.05 0.049606 0.056267)
(-0.05 0.049114 0.059369)
(-0.05 0.048429 0.062434)
(-0.05 0.047553 0.065451)
(-0.05 0.046489 0.068406)
(-0.05 0.045241 0.071289)
(-0.05 0.043815 0.074088)
(-0.05 0.042216 0.076791)
(-0.05 0.040451 0.079389)
(-0.05 0.038526 0.081871)
(-0.05 0.036448 0.084227)
(-0.05 0.034227 0.086448)
(-0.05 0.031871 0.088526)
(-0.05 0.029389 0.090451)
(-0.05 0.026791 0.092216)
(-0.05 0.024088 0.093815)
(-0.05 0.021289 0.095241)
(-0.05 0.018406 0.096489)
(-0.05 0.015451 0.097553)
(-0.05 0.012435 0.098429)
(-0.05 0.009369 0.099114)
(-0.05 0.006267 0.099606)
(-0.05 0.00314 0.099901)
(-0.05 0 0.1)
(-0.05 -0.003139 0.099901)
(-0.05 -0.006267 0.099606)
(-0.05 -0.009369 0.099114)
(-0.05 -0.012434 0.098429)
(-0.05 -0.015451 0.097553)
(-0.05 -0.018406 0.096489)
(-0.05 -0.021289 0.095241)
(-0.05 -0.024088 0.093815)
(-0.05 -0.026791 0.092216)
(-0.05 -0.029389 0.090451)
(-0.05 -0.031871 0.088526)
(-0.05 -0.034227 0.086448)
(-0.05 -0.036448 0.084227)
(-0.05 -0.038526 0.081871)
(-0.05 -0.040451 0.079389)
(-0.05 -0.042216 0.076791)
(-0.05 -0.043815 0.074088)
(-0.05 -0.045241 0.071289)
(-0.05 -0.046489 0.068406)
(-0.05 -0.047553 0.065451)
(-0.05 -0.048429 0.062435)
(-0.05 -0.049114 0.059369)
(-0.05 -0.049606 0.056267)
(-0.05 -0.049901 0.05314)
(-0.05 -0.05 0.05)
(-0.05 -0.049901 0.046861)
(-0.05 -0.049606 0.043733)
(-0.05 -0.049114 0.040631)
(-0.05 -0.048429 0.037566)
(-0.05 -0.047553 0.034549)
(-0.05 -0.046489 0.031594)
(-0.05 -0.045241 0.028711)
(-0.05 -0.043815 0.025912)
(-0.05 -0.042216 0.023209)
(-0.05 -0.040451 0.020611)
(-0.05 -0.038526 0.018129)
(-0.05 -0.036448 0.015773)
(-0.05 -0.034227 0.013552)
(-0.05 -0.031871 0.011474)
(-0.05 -0.029389 0.009549)
(-0.05 -0.026791 0.007784)
(-0.05 -0.024088 0.006185)
(-0.05 -0.021289 0.004759)
(-0.05 -0.018406 0.003511)
(-0.05 -0.015451 0.002447)
(-0.05 -0.012435 0.001571)
(-0.05 -0.009369 0.000886)
(-0.05 -0.006267 0.000394)
(-0.05 -0.00314 9.9e-05)
(-0.05 -0 0)
(-0.05 0.00314 9.9e-05)
(-0.05 0.006267 0.000394)
(-0.05 0.009369 0.000886)
(-0.05 0.012434 0.001571)
(-0.05 0.015451 0.002447)
(-0.05 0.018406 0.003511)
(-0.05 0.021289 0.004759)
(-0.05 0.024088 0.006185)
(-0.05 0.026791 0.007784)
(-0.05 0.029389 0.009549)
(-0.05 0.031871 0.011474)
(-0.05 0.034227 0.013552)
(-0.05 0.036448 0.015773)
(-0.05 0.038526 0.018129)
(-0.05 0.040451 0.020611)
(-0.05 0.042216 0.023209)
(-0.05 0.043815 0.025912)
(-0.05 0.045241 0.028711)
(-0.05 0.046489 0.031594)
(-0.05 0.047553 0.034549)
(-0.05 0.048429 0.037566)
(-0.05 0.049114 0.040631)
(-0.05 0.049606 0.043733)
(-0.05 0.049901 0.04686)
)

// edges

200
(
(0 1)
(1 2)
(2 3)
(3 4)
(4 5)
(5 6)
(6 7)
(7 8)
(8 9)
(9 10)
(10 11)
(11 12)
(12 13)
(13 14)
(14 15)
(15 16)
(16 17)
(17 18)
(18 19)
(19 20)
(20 21)
(21 22)
(22 23)
(23 24)
(24 25)
(25 26)
(26 27)
(27 28)
(28 29)
(29 30)
(30 31)
(31 32)
(32 33)
(33 34)
(34 35)
(35 36)
(36 37)
(37 38)
(38 39)
(39 40)
(40 41)
(41 42)
(42 43)
(43 44)
(44 45)
(45 46)
(46 47)
(47 48)
(48 49)
(49 50)
(50 51)
(51 52)
(52 53)
(53 54)
(54 55)
(55 56)
(56 57)
(57 58)
(58 59)
(59 60)
(60 61)
(61 62)
(62 63)
(63 64)
(64 65)
(65 66)
(66 67)
(67 68)
(68 69)
(69 70)
(70 71)
(71 72)
(72 73)
(73 74)
(74 75)
(75 76)
(76 77)
(77 78)
(78 79)
(79 80)
(80 81)
(81 82)
(82 83)
(83 84)
(84 85)
(85 86)
(86 87)
(87 88)
(88 89)
(89 90)
(90 91)
(91 92)
(92 93)
(93 94)
(94 95)
(95 96)
(96 97)
(97 98)
(98 99)
(99 0)
(100 101)
(101 102)
(102 103)
(103 104)
(104 105)
(105 106)
(106 107)
(107 108)
(108 109)
(109 110)
(110 111)
(111 112)
(112 113)
(113 114)
(114 115)
(115 116)
(116 117)
(117 118)
(118 119)
(119 120)
(120 121)
(121 122)
(122 123)
(123 124)
(124 125)
(125 126)
(126 127)
(127 128)
(128 129)
(129 130)
(130 131)
(131 132)
(132 133)
(133 134)
(134 135)
(135 136)
(136 137)
(137 138)
(138 139)
(139 140)
(140 141)
(141 142)
(142 143)
(143 144)
(144 145)
(145 146)
(146 147)
(147 148)
(148 149)
(149 150)
(150 151)
(151 152)
(152 153)
(153 154)
(154 155)
(155 156)
(156 157)
(157 158)
(158 159)
(159 160)
(160 161)
(161 162)
(162 163)
(163 164)
(164 165)
(165 166)
(166 167)
(167 168)
(168 169)
(169 170)
(170 171)
(171 172)
(172 173)
(173 174)
(174 175)
(175 176)
(176 177)
(177 178)
(178 179)
(179 180)
(180 181)
(181 182)
(182 183)
(183 184)
(184 185)
(185 186)
(186 187)
(187 188)
(188 189)
(189 190)
(190 191)
(191 192)
(192 193)
(193 194)
(194 195)
(195 196)
(196 197)
(197 198)
(198 199)
(199 100)
)

// concaveStart mixedStart nonFeatureStart
0 0 0
// internalStart flatStart openStart multipleStart
0 0 0 200
// normals

200
(
(0 0.999503 -0.0315128)
(0 0.995579 -0.0939233)
(0 0.987654 -0.156649)
(0 0.975939 -0.218042)
(0 0.960313 -0.278925)
(0 0.940867 -0.338775)
(0 0.917706 -0.39726)
(0 0.891028 -0.453949)
(0 0.860679 -0.509148)
(0 0.82717 -0.561952)
(0 0.790191 -0.612861)
(0 0.749968 -0.661474)
(0 0.707106 -0.707107)
(0 0.661474 -0.749968)
(0 0.61286 -0.790191)
(0 0.561953 -0.827169)
(0 0.509148 -0.860679)
(0 0.453949 -0.891027)
(0 0.397259 -0.917707)
(0 0.338776 -0.940867)
(0 0.278839 -0.960338)
(0 0.21811 -0.975924)
(0 0.156649 -0.987654)
(0 0.0939226 -0.99558)
(0 0.031513 -0.999503)
(0 -0.031513 -0.999503)
(0 -0.0939226 -0.99558)
(0 -0.156649 -0.987654)
(0 -0.218042 -0.975939)
(0 -0.278924 -0.960313)
(0 -0.338776 -0.940867)
(0 -0.397259 -0.917707)
(0 -0.453949 -0.891027)
(0 -0.509148 -0.860679)
(0 -0.561953 -0.827169)
(0 -0.61286 -0.790191)
(0 -0.661474 -0.749968)
(0 -0.707106 -0.707107)
(0 -0.749968 -0.661474)
(0 -0.790191 -0.612861)
(0 -0.82717 -0.561952)
(0 -0.860679 -0.509148)
(0 -0.891028 -0.453949)
(0 -0.917706 -0.39726)
(0 -0.940867 -0.338775)
(0 -0.960338 -0.278839)
(0 -0.975924 -0.21811)
(0 -0.987654 -0.156649)
(0 -0.995582 -0.0938935)
(0 -0.999503 -0.0315229)
(0 -0.999503 0.0315129)
(0 -0.995579 0.0939232)
(0 -0.987654 0.156649)
(0 -0.975939 0.218042)
(0 -0.960313 0.278924)
(0 -0.940867 0.338776)
(0 -0.917706 0.397259)
(0 -0.891028 0.453949)
(0 -0.860679 0.509148)
(0 -0.827169 0.561953)
(0 -0.790192 0.61286)
(0 -0.749968 0.661474)
(0 -0.707106 0.707108)
(0 -0.661475 0.749967)
(0 -0.61286 0.790191)
(0 -0.561953 0.827169)
(0 -0.509147 0.860679)
(0 -0.453951 0.891027)
(0 -0.397258 0.917707)
(0 -0.338777 0.940867)
(0 -0.278839 0.960338)
(0 -0.21811 0.975924)
(0 -0.156649 0.987654)
(0 -0.0938923 0.995582)
(0 -0.0315241 0.999503)
(-0 0.0315141 0.999503)
(-0 0.0939221 0.99558)
(-0 0.156649 0.987654)
(-0 0.218042 0.975939)
(-0 0.278924 0.960313)
(-0 0.338777 0.940867)
(-0 0.397258 0.917707)
(-0 0.453951 0.891027)
(-0 0.509147 0.860679)
(-0 0.561953 0.827169)
(-0 0.61286 0.790191)
(-0 0.661475 0.749967)
(-0 0.707106 0.707108)
(-0 0.749968 0.661474)
(-0 0.790192 0.61286)
(-0 0.827169 0.561953)
(-0 0.860679 0.509148)
(-0 0.891028 0.453949)
(-0 0.917706 0.397259)
(-0 0.940867 0.338776)
(-0 0.960338 0.278839)
(-0 0.975924 0.21811)
(-0 0.987654 0.156649)
(-0 0.995582 0.0938935)
(-0 0.999503 0.0315229)
(0 0.999503 0.0315229)
(0 0.995582 0.0938935)
(0 0.987654 0.156649)
(0 0.975924 0.21811)
(0 0.960338 0.278839)
(0 0.940867 0.338776)
(0 0.917706 0.397259)
(0 0.891028 0.453949)
(0 0.860679 0.509148)
(0 0.827169 0.561953)
(0 0.790192 0.61286)
(0 0.749968 0.661474)
(0 0.707106 0.707108)
(0 0.661475 0.749967)
(0 0.61286 0.790191)
(0 0.561953 0.827169)
(0 0.509147 0.860679)
(0 0.453951 0.891027)
(0 0.397258 0.917707)
(0 0.338777 0.940867)
(0 0.278924 0.960313)
(0 0.218042 0.975939)
(0 0.156649 0.987654)
(0 0.0939221 0.99558)
(0 0.0315141 0.999503)
(0 -0.0315241 0.999503)
(0 -0.0938923 0.995582)
(0 -0.156649 0.987654)
(0 -0.21811 0.975924)
(0 -0.278839 0.960338)
(0 -0.338777 0.940867)
(0 -0.397258 0.917707)
(0 -0.453951 0.891027)
(0 -0.509147 0.860679)
(0 -0.561953 0.827169)
(0 -0.61286 0.790191)
(0 -0.661475 0.749967)
(0 -0.707106 0.707108)
(0 -0.749968 0.661474)
(0 -0.790192 0.61286)
(0 -0.827169 0.561953)
(0 -0.860679 0.509148)
(0 -0.891028 0.453949)
(0 -0.917706 0.397259)
(0 -0.940867 0.338776)
(0 -0.960313 0.278924)
(0 -0.975939 0.218042)
(0 -0.987654 0.156649)
(0 -0.995579 0.0939232)
(0 -0.999503 0.0315129)
(0 -0.999503 -0.0315229)
(0 -0.995582 -0.0938935)
(0 -0.987654 -0.156649)
(0 -0.975924 -0.21811)
(0 -0.960338 -0.278839)
(0 -0.940867 -0.338775)
(0 -0.917706 -0.39726)
(0 -0.891028 -0.453949)
(0 -0.860679 -0.509148)
(0 -0.82717 -0.561952)
(0 -0.790191 -0.612861)
(0 -0.749968 -0.661474)
(0 -0.707106 -0.707107)
(0 -0.661474 -0.749968)
(0 -0.61286 -0.790191)
(0 -0.561953 -0.827169)
(0 -0.509148 -0.860679)
(0 -0.453949 -0.891027)
(0 -0.397259 -0.917707)
(0 -0.338776 -0.940867)
(0 -0.278924 -0.960313)
(0 -0.218042 -0.975939)
(0 -0.156649 -0.987654)
(0 -0.0939226 -0.99558)
(0 -0.031513 -0.999503)
(0 0.031513 -0.999503)
(0 0.0939226 -0.99558)
(0 0.156649 -0.987654)
(0 0.21811 -0.975924)
(0 0.278839 -0.960338)
(0 0.338776 -0.940867)
(0 0.397259 -0.917707)
(0 0.453949 -0.891027)
(0 0.509148 -0.860679)
(0 0.561953 -0.827169)
(0 0.61286 -0.790191)
(0 0.661474 -0.749968)
(0 0.707106 -0.707107)
(0 0.749968 -0.661474)
(0 0.790191 -0.612861)
(0 0.82717 -0.561952)
(0 0.860679 -0.509148)
(0 0.891028 -0.453949)
(0 0.917706 -0.39726)
(0 0.940867 -0.338775)
(0 0.960338 -0.278839)
(0 0.975924 -0.21811)
(0 0.987654 -0.156649)
(0 0.995579 -0.0939233)
(0 0.999503 -0.0315128)
)

// normal volume types

200
(
0
0
0
0
0
0
0
0
0
0
0
0
0
0
0
0
0
0
0
0
0
0
0
0
0
0
0
0
0
0
0
0
0
0
0
0
0
0
0
0
0
0
0
0
0
0
0
0
0
0
0
0
0
0
0
0
0
0
0
0
0
0
0
0
0
0
0
0
0
0
0
0
0
0
0
0
0
0
0
0
0
0
0
0
0
0
0
0
0
0
0
0
0
0
0
0
0
0
0
0
0
0
0
0
0
0
0
0
0
0
0
0
0
0
0
0
0
0
0
0
0
0
0
0
0
0
0
0
0
0
0
0
0
0
0
0
0
0
0
0
0
0
0
0
0
0
0
0
0
0
0
0
0
0
0
0
0
0
0
0
0
0
0
0
0
0
0
0
0
0
0
0
0
0
0
0
0
0
0
0
0
0
0
0
0
0
0
0
0
0
0
0
0
0
0
0
0
0
0
0
)

// normalDirections

200
(
1(1)
1(1)
1(1)
1(1)
1(1)
1(1)
1(1)
1(1)
1(1)
1(1)
1(1)
1(1)
1(1)
1(1)
1(1)
1(1)
1(1)
1(1)
1(1)
1(1)
1(1)
1(1)
1(1)
1(1)
1(1)
1(1)
1(1)
1(1)
1(1)
1(1)
1(1)
1(1)
1(1)
1(1)
1(1)
1(1)
1(1)
1(1)
1(1)
1(1)
1(1)
1(1)
1(1)
1(1)
1(1)
1(1)
1(1)
1(1)
1(1)
1(1)
1(1)
1(1)
1(1)
1(1)
1(1)
1(1)
1(1)
1(1)
1(1)
1(1)
1(1)
1(1)
1(1)
1(1)
1(1)
1(1)
1(1)
1(1)
1(1)
1(1)
1(1)
1(1)
1(1)
1(1)
1(1)
1(1)
1(1)
1(1)
1(1)
1(1)
1(1)
1(1)
1(1)
1(1)
1(1)
1(1)
1(1)
1(1)
1(1)
1(1)
1(1)
1(1)
1(1)
1(1)
1(1)
1(1)
1(1)
1(1)
1(1)
1(1)
1(1)
1(1)
1(1)
1(1)
1(1)
1(1)
1(1)
1(1)
1(1)
1(1)
1(1)
1(1)
1(1)
1(1)
1(1)
1(1)
1(1)
1(1)
1(1)
1(1)
1(1)
1(1)
1(1)
1(1)
1(1)
1(1)
1(1)
1(1)
1(1)
1(1)
1(1)
1(1)
1(1)
1(1)
1(1)
1(1)
1(1)
1(1)
1(1)
1(1)
1(1)
1(1)
1(1)
1(1)
1(1)
1(1)
1(1)
1(1)
1(1)
1(1)
1(1)
1(1)
1(1)
1(1)
1(1)
1(1)
1(1)
1(1)
1(1)
1(1)
1(1)
1(1)
1(1)
1(1)
1(1)
1(1)
1(1)
1(1)
1(1)
1(1)
1(1)
1(1)
1(1)
1(1)
1(1)
1(1)
1(1)
1(1)
1(1)
1(1)
1(1)
1(1)
1(1)
1(1)
1(1)
1(1)
1(1)
1(1)
1(1)
1(1)
1(1)
1(1)
1(1)
1(1)
1(1)
1(1)
1(1)
1(1)
1(1)
1(1)
)

// edgeNormals

200
(
1(0)
1(1)
1(2)
1(3)
1(4)
1(5)
1(6)
1(7)
1(8)
1(9)
1(10)
1(11)
1(12)
1(13)
1(14)
1(15)
1(16)
1(17)
1(18)
1(19)
1(20)
1(21)
1(22)
1(23)
1(24)
1(25)
1(26)
1(27)
1(28)
1(29)
1(30)
1(31)
1(32)
1(33)
1(34)
1(35)
1(36)
1(37)
1(38)
1(39)
1(40)
1(41)
1(42)
1(43)
1(44)
1(45)
1(46)
1(47)
1(48)
1(49)
1(50)
1(51)
1(52)
1(53)
1(54)
1(55)
1(56)
1(57)
1(58)
1(59)
1(60)
1(61)
1(62)
1(63)
1(64)
1(65)
1(66)
1(67)
1(68)
1(69)
1(70)
1(71)
1(72)
1(73)
1(74)
1(75)
1(76)
1(77)
1(78)
1(79)
1(80)
1(81)
1(82)
1(83)
1(84)
1(85)
1(86)
1(87)
1(88)
1(89)
1(90)
1(91)
1(92)
1(93)
1(94)
1(95)
1(96)
1(97)
1(98)
1(99)
1(100)
1(101)
1(102)
1(103)
1(104)
1(105)
1(106)
1(107)
1(108)
1(109)
1(110)
1(111)
1(112)
1(113)
1(114)
1(115)
1(116)
1(117)
1(118)
1(119)
1(120)
1(121)
1(122)
1(123)
1(124)
1(125)
1(126)
1(127)
1(128)
1(129)
1(130)
1(131)
1(132)
1(133)
1(134)
1(135)
1(136)
1(137)
1(138)
1(139)
1(140)
1(141)
1(142)
1(143)
1(144)
1(145)
1(146)
1(147)
1(148)
1(149)
1(150)
1(151)
1(152)
1(153)
1(154)
1(155)
1(156)
1(157)
1(158)
1(159)
1(160)
1(161)
1(162)
1(163)
1(164)
1(165)
1(166)
1(167)
1(168)
1(169)
1(170)
1(171)
1(172)
1(173)
1(174)
1(175)
1(176)
1(177)
1(178)
1(179)
1(180)
1(181)
1(182)
1(183)
1(184)
1(185)
1(186)
1(187)
1(188)
1(189)
1(190)
1(191)
1(192)
1(193)
1(194)
1(195)
1(196)
1(197)
1(198)
1(199)
)

// featurePointNormals
0()
// featurePointEdges
0()
// regionEdges

200
(
0
1
2
3
4
5
6
7
8
9
10
11
12
13
14
15
16
17
18
19
20
21
22
23
24
25
26
27
28
29
30
31
32
33
34
35
36
37
38
39
40
41
42
43
44
45
46
47
48
49
50
51
52
53
54
55
56
57
58
59
60
61
62
63
64
65
66
67
68
69
70
71
72
73
74
75
76
77
78
79
80
81
82
83
84
85
86
87
88
89
90
91
92
93
94
95
96
97
98
99
100
101
102
103
104
105
106
107
108
109
110
111
112
113
114
115
116
117
118
119
120
121
122
123
124
125
126
127
128
129
130
131
132
133
134
135
136
137
138
139
140
141
142
143
144
145
146
147
148
149
150
151
152
153
154
155
156
157
158
159
160
161
162
163
164
165
166
167
168
169
170
171
172
173
174
175
176
177
178
179
180
181
182
183
184
185
186
187
188
189
190
191
192
193
194
195
196
197
198
199
)



// ************************************************************************* //
